<?xml version="1.0" encoding="UTF-8"?>

<!-- generated on 2025-11-29 12:19:52.745636 by Eclipse SUMO randomTrips.py v1_25_0+0000-ac6c5a6752d
<configuration>
    <net-file value="C:\Users\manda\OneDrive\Documents\AI Traffic - Jupyter\my_network.net.xml"/>
    <route-file value="C:\Users\manda\OneDrive\Documents\AI Traffic - Jupyter\my_routes.rou.xml"/>
    <prefix value="trip"/>
    <period value="0.26184293787776297"/>
    <binomial value="10"/>
</configuration>
-->

<routes xmlns:xsi="http://www.w3.org/2001/XMLSchema-instance" xsi:noNamespaceSchemaLocation="http://sumo.dlr.de/xsd/routes_file.xsd">
    <trip id="trip0" depart="0.00" from="15833384#0" to="107445428#2"/>
    <trip id="trip1" depart="0.00" from="315129223#1" to="800859756#2"/>
    <trip id="trip2" depart="0.00" from="-974103232#1" to="-974103232#0"/>
    <trip id="trip3" depart="1.00" from="120142871" to="15805292#1"/>
    <trip id="trip4" depart="1.00" from="315129223#4" to="-974103232#1"/>
    <trip id="trip5" depart="2.00" from="822595542" to="821520601#1"/>
    <trip id="trip6" depart="2.00" from="15833384#1" to="974103232#0"/>
    <trip id="trip7" depart="2.00" from="315129223#2" to="315129223#3"/>
    <trip id="trip8" depart="2.00" from="107445426#0" to="-974103232#1"/>
    <trip id="trip9" depart="2.00" from="822595543" to="821520601#2"/>
    <trip id="trip10" depart="2.00" from="164073716#2" to="107445426#1"/>
    <trip id="trip11" depart="3.00" from="164073716#1" to="315129218#1"/>
    <trip id="trip12" depart="3.00" from="164073716#2" to="821520605"/>
    <trip id="trip13" depart="4.00" from="315129223#4" to="-974103233"/>
    <trip id="trip14" depart="4.00" from="315129223#4" to="800859756#1"/>
    <trip id="trip15" depart="4.00" from="315129223#2" to="40349438#1"/>
    <trip id="trip16" depart="5.00" from="821520605" to="223051913#1"/>
    <trip id="trip17" depart="5.00" from="315129223#3" to="-15833384#0"/>
    <trip id="trip18" depart="5.00" from="315129218#0" to="223051907"/>
    <trip id="trip19" depart="5.00" from="315129223#3" to="315129223#3"/>
    <trip id="trip20" depart="5.00" from="315129223#1" to="315129223#4"/>
    <trip id="trip21" depart="5.00" from="822595542" to="107445426#0"/>
    <trip id="trip22" depart="5.00" from="15805292#0" to="-120142871"/>
    <trip id="trip23" depart="6.00" from="315129223#1" to="315129223#1"/>
    <trip id="trip24" depart="6.00" from="315129223#4" to="315129223#4"/>
    <trip id="trip25" depart="6.00" from="15833384#1" to="40349438#1"/>
    <trip id="trip26" depart="7.00" from="120142871" to="-15805292#0"/>
    <trip id="trip27" depart="7.00" from="164073716#2" to="-974103233"/>
    <trip id="trip28" depart="7.00" from="164073716#2" to="-974103232#0"/>
    <trip id="trip29" depart="7.00" from="164073716#0" to="223051907"/>
    <trip id="trip30" depart="8.00" from="315129223#0" to="-15833384#1"/>
    <trip id="trip31" depart="8.00" from="324489280#2" to="821520601#1"/>
    <trip id="trip32" depart="8.00" from="164073716#2" to="324489280#1"/>
    <trip id="trip33" depart="9.00" from="107445428#0" to="822595541"/>
    <trip id="trip34" depart="9.00" from="822595543" to="821520601#0"/>
    <trip id="trip35" depart="10.00" from="15833384#1" to="107445428#1"/>
    <trip id="trip36" depart="10.00" from="822595543" to="821520601#2"/>
    <trip id="trip37" depart="10.00" from="16151549#1" to="16151549#1"/>
    <trip id="trip38" depart="10.00" from="315129218#0" to="-974103232#1"/>
    <trip id="trip39" depart="11.00" from="107445428#0" to="107445428#0"/>
    <trip id="trip40" depart="11.00" from="315129223#2" to="800859756#1"/>
    <trip id="trip41" depart="11.00" from="315129223#1" to="107445426#0"/>
    <trip id="trip42" depart="11.00" from="107445426#1" to="-15833384#1"/>
    <trip id="trip43" depart="11.00" from="164073716#0" to="107445426#1"/>
    <trip id="trip44" depart="12.00" from="974103232#0" to="974103232#1"/>
    <trip id="trip45" depart="12.00" from="164073716#0" to="315129218#0"/>
    <trip id="trip46" depart="12.00" from="821520601#1" to="821520601#1"/>
    <trip id="trip47" depart="13.00" from="822595543" to="821520601#0"/>
    <trip id="trip48" depart="13.00" from="15833384#1" to="15833384#1"/>
    <trip id="trip49" depart="13.00" from="164073716#2" to="324489280#1"/>
    <trip id="trip50" depart="13.00" from="315129223#2" to="800859756#1"/>
    <trip id="trip51" depart="13.00" from="822595542" to="223051913#1"/>
    <trip id="trip52" depart="14.00" from="324489280#1" to="821520601#1"/>
    <trip id="trip53" depart="14.00" from="-974103232#0" to="-15833384#0"/>
    <trip id="trip54" depart="14.00" from="315129223#0" to="-15833384#1"/>
    <trip id="trip55" depart="14.00" from="974103232#0" to="40349438#1"/>
    <trip id="trip56" depart="14.00" from="223051913#2" to="223051913#2"/>
    <trip id="trip57" depart="14.00" from="315129223#3" to="107445426#1"/>
    <trip id="trip58" depart="15.00" from="315129223#3" to="315129223#3"/>
    <trip id="trip59" depart="15.00" from="164073716#2" to="324489280#3"/>
    <trip id="trip60" depart="15.00" from="315129223#0" to="-974103232#1"/>
    <trip id="trip61" depart="15.00" from="107445426#0" to="107445426#1"/>
    <trip id="trip62" depart="15.00" from="107445428#2" to="40349438#0"/>
    <trip id="trip63" depart="15.00" from="107445428#0" to="40349438#1"/>
    <trip id="trip64" depart="16.00" from="315129223#0" to="-15833384#1"/>
    <trip id="trip65" depart="16.00" from="324489280#1" to="324489280#1"/>
    <trip id="trip66" depart="17.00" from="-15805292#0" to="-15805292#0"/>
    <trip id="trip67" depart="17.00" from="164073716#2" to="107445426#0"/>
    <trip id="trip68" depart="17.00" from="800859756#0" to="40349438#0"/>
    <trip id="trip69" depart="17.00" from="16151549#1" to="16151549#3"/>
    <trip id="trip70" depart="18.00" from="324489280#1" to="821520601#1"/>
    <trip id="trip71" depart="18.00" from="164073716#0" to="315129218#1"/>
    <trip id="trip72" depart="18.00" from="315129218#0" to="-15833384#0"/>
    <trip id="trip73" depart="18.00" from="821520605" to="821520603"/>
    <trip id="trip74" depart="18.00" from="15833384#0" to="974103232#1"/>
    <trip id="trip75" depart="19.00" from="315129223#3" to="800859756#1"/>
    <trip id="trip76" depart="19.00" from="822595542" to="821520605"/>
    <trip id="trip77" depart="19.00" from="164073716#0" to="-974103233"/>
    <trip id="trip78" depart="19.00" from="315129223#3" to="800859756#2"/>
    <trip id="trip79" depart="19.00" from="315129223#0" to="315129223#2"/>
    <trip id="trip80" depart="20.00" from="324489280#0" to="324489280#3"/>
    <trip id="trip81" depart="20.00" from="315129223#4" to="-15833384#0"/>
    <trip id="trip82" depart="20.00" from="974103233" to="1193988979"/>
    <trip id="trip83" depart="20.00" from="315129223#3" to="-974103232#0"/>
    <trip id="trip84" depart="21.00" from="164073716#2" to="223051907"/>
    <trip id="trip85" depart="21.00" from="800859756#0" to="40349438#0"/>
    <trip id="trip86" depart="21.00" from="974103232#0" to="107445428#1"/>
    <trip id="trip87" depart="21.00" from="315129223#4" to="107445426#0"/>
    <trip id="trip88" depart="21.00" from="822595542" to="107445426#1"/>
    <trip id="trip89" depart="22.00" from="800859756#0" to="40349438#1"/>
    <trip id="trip90" depart="22.00" from="315129223#4" to="223051907"/>
    <trip id="trip91" depart="22.00" from="164073716#2" to="324489280#2"/>
    <trip id="trip92" depart="22.00" from="315129223#0" to="315129223#3"/>
    <trip id="trip93" depart="23.00" from="40349438#0" to="40349438#1"/>
    <trip id="trip94" depart="24.00" from="324489280#2" to="324489280#3"/>
    <trip id="trip95" depart="24.00" from="822595543" to="821520601#1"/>
    <trip id="trip96" depart="24.00" from="324489280#0" to="821520601#1"/>
    <trip id="trip97" depart="24.00" from="822595542" to="223051907"/>
    <trip id="trip98" depart="24.00" from="822595542" to="821520601#0"/>
    <trip id="trip99" depart="25.00" from="164073716#2" to="315129218#1"/>
    <trip id="trip100" depart="25.00" from="15833384#0" to="-974103233"/>
    <trip id="trip101" depart="26.00" from="974103233" to="107445428#1"/>
    <trip id="trip102" depart="26.00" from="821520601#1" to="821520601#1"/>
    <trip id="trip103" depart="26.00" from="315129223#2" to="800859756#2"/>
    <trip id="trip104" depart="26.00" from="324489280#2" to="822595543"/>
    <trip id="trip105" depart="27.00" from="15833384#1" to="-974103233"/>
    <trip id="trip106" depart="27.00" from="315129223#1" to="107445426#1"/>
    <trip id="trip107" depart="27.00" from="315129223#2" to="822595541"/>
    <trip id="trip108" depart="27.00" from="315129223#0" to="822595541"/>
    <trip id="trip109" depart="27.00" from="315129218#1" to="-974103232#1"/>
    <trip id="trip110" depart="28.00" from="315129223#2" to="315129223#3"/>
    <trip id="trip111" depart="28.00" from="15833384#0" to="107445428#2"/>
    <trip id="trip112" depart="28.00" from="164073716#1" to="223051913#1"/>
    <trip id="trip113" depart="28.00" from="822595542" to="324489280#3"/>
    <trip id="trip114" depart="28.00" from="822595542" to="821520605"/>
    <trip id="trip115" depart="28.00" from="315129223#1" to="40349438#1"/>
    <trip id="trip116" depart="29.00" from="164073716#2" to="324489280#0"/>
    <trip id="trip117" depart="29.00" from="821520601#1" to="821520601#2"/>
    <trip id="trip118" depart="29.00" from="164073716#0" to="107445426#1"/>
    <trip id="trip119" depart="29.00" from="822595542" to="324489280#0"/>
    <trip id="trip120" depart="29.00" from="107445426#0" to="-15833384#1"/>
    <trip id="trip121" depart="30.00" from="-974103232#1" to="-974103233"/>
    <trip id="trip122" depart="30.00" from="315129223#3" to="315129223#4"/>
    <trip id="trip123" depart="30.00" from="324489280#0" to="324489280#1"/>
    <trip id="trip124" depart="31.00" from="315129223#2" to="-974103233"/>
    <trip id="trip125" depart="31.00" from="164073716#0" to="821520601#1"/>
    <trip id="trip126" depart="31.00" from="324489280#1" to="821520601#0"/>
    <trip id="trip127" depart="31.00" from="315129223#4" to="107445426#0"/>
    <trip id="trip128" depart="31.00" from="164073716#2" to="315129218#1"/>
    <trip id="trip129" depart="31.00" from="822595543" to="821520601#0"/>
    <trip id="trip130" depart="32.00" from="315129223#1" to="40349438#0"/>
    <trip id="trip131" depart="32.00" from="164073716#2" to="324489280#3"/>
    <trip id="trip132" depart="33.00" from="324489280#2" to="821520601#2"/>
    <trip id="trip133" depart="33.00" from="800859756#1" to="800859756#1"/>
    <trip id="trip134" depart="33.00" from="315129223#3" to="800859756#1"/>
    <trip id="trip135" depart="33.00" from="164073716#2" to="315129218#1"/>
    <trip id="trip136" depart="34.00" from="1193988979" to="107445428#1"/>
    <trip id="trip137" depart="34.00" from="822595542" to="822595543"/>
    <trip id="trip138" depart="34.00" from="822595542" to="821520601#0"/>
    <trip id="trip139" depart="34.00" from="164073716#2" to="324489280#0"/>
    <trip id="trip140" depart="34.00" from="-974103232#0" to="-974103232#0"/>
    <trip id="trip141" depart="34.00" from="315129223#1" to="315129223#1"/>
    <trip id="trip142" depart="34.00" from="324489280#3" to="821520601#2"/>
    <trip id="trip143" depart="34.00" from="223051913#0" to="223051913#2"/>
    <trip id="trip144" depart="35.00" from="315129218#0" to="223051907"/>
    <trip id="trip145" depart="36.00" from="164073716#0" to="-15833384#0"/>
    <trip id="trip146" depart="36.00" from="315129218#1" to="107445426#1"/>
    <trip id="trip147" depart="36.00" from="324489280#0" to="821520601#0"/>
    <trip id="trip148" depart="36.00" from="822595542" to="223051913#2"/>
    <trip id="trip149" depart="36.00" from="821520605" to="223051913#1"/>
    <trip id="trip150" depart="37.00" from="164073716#0" to="-974103232#1"/>
    <trip id="trip151" depart="37.00" from="821520605" to="223051913#2"/>
    <trip id="trip152" depart="37.00" from="315129223#1" to="40349438#1"/>
    <trip id="trip153" depart="37.00" from="107445428#0" to="822595541"/>
    <trip id="trip154" depart="37.00" from="164073716#1" to="-974103232#1"/>
    <trip id="trip155" depart="38.00" from="107445426#0" to="-15833384#1"/>
    <trip id="trip156" depart="38.00" from="324489280#1" to="821520601#0"/>
    <trip id="trip157" depart="38.00" from="315129223#0" to="315129223#1"/>
    <trip id="trip158" depart="38.00" from="107445428#0" to="107445428#2"/>
    <trip id="trip159" depart="38.00" from="15805292#0" to="15805292#1"/>
    <trip id="trip160" depart="39.00" from="315129223#2" to="315129223#4"/>
    <trip id="trip161" depart="39.00" from="315129223#3" to="822595541"/>
    <trip id="trip162" depart="39.00" from="822595542" to="223051913#1"/>
    <trip id="trip163" depart="40.00" from="315129223#4" to="-974103232#1"/>
    <trip id="trip164" depart="40.00" from="324489280#2" to="821520601#0"/>
    <trip id="trip165" depart="40.00" from="974103232#0" to="974103232#0"/>
    <trip id="trip166" depart="40.00" from="800859756#0" to="822595541"/>
    <trip id="trip167" depart="40.00" from="15833384#1" to="107445428#2"/>
    <trip id="trip168" depart="40.00" from="164073716#1" to="-974103232#0"/>
    <trip id="trip169" depart="40.00" from="315129223#3" to="40349438#0"/>
    <trip id="trip170" depart="41.00" from="15833384#1" to="974103232#1"/>
    <trip id="trip171" depart="41.00" from="164073716#1" to="107445426#0"/>
    <trip id="trip172" depart="42.00" from="974103233" to="974103232#0"/>
    <trip id="trip173" depart="42.00" from="315129223#2" to="40349438#1"/>
    <trip id="trip174" depart="43.00" from="315129218#0" to="107445426#0"/>
    <trip id="trip175" depart="43.00" from="800859756#1" to="822595541"/>
    <trip id="trip176" depart="43.00" from="164073716#2" to="223051907"/>
    <trip id="trip177" depart="43.00" from="107445426#0" to="223051907"/>
    <trip id="trip178" depart="44.00" from="315129218#0" to="315129218#0"/>
    <trip id="trip179" depart="44.00" from="315129223#0" to="315129223#4"/>
    <trip id="trip180" depart="44.00" from="223051913#1" to="223051913#2"/>
    <trip id="trip181" depart="44.00" from="223051907" to="-974103232#1"/>
    <trip id="trip182" depart="44.00" from="223051907" to="-974103233"/>
    <trip id="trip183" depart="44.00" from="315129223#2" to="315129223#2"/>
    <trip id="trip184" depart="44.00" from="315129223#4" to="800859756#1"/>
    <trip id="trip185" depart="45.00" from="324489280#2" to="821520601#0"/>
    <trip id="trip186" depart="45.00" from="164073716#0" to="164073716#0"/>
    <trip id="trip187" depart="45.00" from="315129223#4" to="800859756#1"/>
    <trip id="trip188" depart="45.00" from="107445426#0" to="107445426#1"/>
    <trip id="trip189" depart="45.00" from="40349438#0" to="40349438#1"/>
    <trip id="trip190" depart="46.00" from="-974103232#1" to="-974103232#1"/>
    <trip id="trip191" depart="47.00" from="15833384#0" to="107445428#0"/>
    <trip id="trip192" depart="47.00" from="164073716#2" to="821520605"/>
    <trip id="trip193" depart="47.00" from="315129223#4" to="822595541"/>
    <trip id="trip194" depart="47.00" from="315129223#1" to="822595541"/>
    <trip id="trip195" depart="48.00" from="315129223#1" to="800859756#2"/>
    <trip id="trip196" depart="48.00" from="107445426#0" to="107445426#0"/>
    <trip id="trip197" depart="48.00" from="315129218#0" to="-974103232#0"/>
    <trip id="trip198" depart="48.00" from="822595541" to="40349438#0"/>
    <trip id="trip199" depart="48.00" from="822595541" to="40349438#0"/>
    <trip id="trip200" depart="49.00" from="315129223#3" to="800859756#1"/>
    <trip id="trip201" depart="49.00" from="16151549#1" to="16151549#3"/>
    <trip id="trip202" depart="49.00" from="15833384#1" to="822595541"/>
    <trip id="trip203" depart="50.00" from="974103232#0" to="974103232#1"/>
    <trip id="trip204" depart="50.00" from="315129218#1" to="223051907"/>
    <trip id="trip205" depart="50.00" from="315129223#1" to="-974103232#0"/>
    <trip id="trip206" depart="50.00" from="974103232#1" to="40349438#1"/>
    <trip id="trip207" depart="50.00" from="164073716#2" to="821520605"/>
    <trip id="trip208" depart="51.00" from="821520601#0" to="821520601#0"/>
    <trip id="trip209" depart="51.00" from="324489280#1" to="324489280#2"/>
    <trip id="trip210" depart="52.00" from="822595542" to="-974103232#1"/>
    <trip id="trip211" depart="52.00" from="1193988979" to="107445428#0"/>
    <trip id="trip212" depart="52.00" from="107445426#1" to="-974103233"/>
    <trip id="trip213" depart="52.00" from="800859756#0" to="40349438#1"/>
    <trip id="trip214" depart="52.00" from="315129223#0" to="-974103232#0"/>
    <trip id="trip215" depart="53.00" from="1193988979" to="107445428#0"/>
    <trip id="trip216" depart="53.00" from="822595542" to="315129218#0"/>
    <trip id="trip217" depart="53.00" from="16151549#2" to="16151549#3"/>
    <trip id="trip218" depart="53.00" from="107445426#0" to="-974103233"/>
    <trip id="trip219" depart="53.00" from="-974103232#1" to="-15833384#0"/>
    <trip id="trip220" depart="54.00" from="315129223#3" to="-974103232#0"/>
    <trip id="trip221" depart="54.00" from="164073716#0" to="223051907"/>
    <trip id="trip222" depart="54.00" from="324489280#1" to="324489280#1"/>
    <trip id="trip223" depart="54.00" from="974103232#1" to="40349438#1"/>
    <trip id="trip224" depart="55.00" from="164073716#2" to="107445426#0"/>
    <trip id="trip225" depart="55.00" from="324489280#3" to="821520601#0"/>
    <trip id="trip226" depart="55.00" from="315129223#2" to="800859756#2"/>
    <trip id="trip227" depart="55.00" from="324489280#1" to="821520601#0"/>
    <trip id="trip228" depart="56.00" from="974103232#0" to="822595541"/>
    <trip id="trip229" depart="56.00" from="-974103232#1" to="-15833384#0"/>
    <trip id="trip230" depart="56.00" from="107445426#0" to="-15833384#0"/>
    <trip id="trip231" depart="57.00" from="107445428#0" to="107445428#2"/>
    <trip id="trip232" depart="57.00" from="324489280#1" to="324489280#2"/>
    <trip id="trip233" depart="57.00" from="-15833384#1" to="-15833384#1"/>
    <trip id="trip234" depart="57.00" from="164073716#1" to="107445426#1"/>
    <trip id="trip235" depart="58.00" from="-15833384#1" to="-15833384#1"/>
    <trip id="trip236" depart="58.00" from="164073716#1" to="-974103232#0"/>
    <trip id="trip237" depart="59.00" from="315129223#1" to="223051907"/>
    <trip id="trip238" depart="59.00" from="107445428#2" to="40349438#1"/>
    <trip id="trip239" depart="59.00" from="324489280#1" to="324489280#2"/>
    <trip id="trip240" depart="59.00" from="223051913#1" to="223051913#1"/>
    <trip id="trip241" depart="60.00" from="1193988979" to="1193988979"/>
    <trip id="trip242" depart="60.00" from="164073716#1" to="324489280#2"/>
    <trip id="trip243" depart="60.00" from="800859756#0" to="40349438#0"/>
    <trip id="trip244" depart="60.00" from="15833384#1" to="40349438#0"/>
    <trip id="trip245" depart="60.00" from="324489280#2" to="821520601#2"/>
    <trip id="trip246" depart="61.00" from="315129223#1" to="-15833384#0"/>
    <trip id="trip247" depart="61.00" from="315129223#1" to="-15833384#0"/>
    <trip id="trip248" depart="61.00" from="164073716#1" to="315129218#1"/>
    <trip id="trip249" depart="61.00" from="315129223#0" to="800859756#1"/>
    <trip id="trip250" depart="61.00" from="164073716#1" to="-974103232#0"/>
    <trip id="trip251" depart="62.00" from="164073716#1" to="-974103233"/>
    <trip id="trip252" depart="62.00" from="107445426#1" to="-15833384#1"/>
    <trip id="trip253" depart="62.00" from="315129223#0" to="223051907"/>
    <trip id="trip254" depart="62.00" from="315129223#3" to="-974103232#0"/>
    <trip id="trip255" depart="63.00" from="315129223#3" to="-15833384#1"/>
    <trip id="trip256" depart="63.00" from="164073716#0" to="-974103232#0"/>
    <trip id="trip257" depart="63.00" from="16151549#0" to="16151549#2"/>
    <trip id="trip258" depart="63.00" from="324489280#0" to="324489280#2"/>
    <trip id="trip259" depart="64.00" from="324489280#3" to="822595543"/>
    <trip id="trip260" depart="64.00" from="315129223#0" to="107445426#1"/>
    <trip id="trip261" depart="64.00" from="107445428#0" to="822595541"/>
    <trip id="trip262" depart="64.00" from="164073716#0" to="324489280#2"/>
    <trip id="trip263" depart="65.00" from="1193988979" to="107445428#1"/>
    <trip id="trip264" depart="65.00" from="315129218#1" to="-974103233"/>
    <trip id="trip265" depart="65.00" from="164073716#0" to="107445426#1"/>
    <trip id="trip266" depart="67.00" from="315129223#1" to="-974103233"/>
    <trip id="trip267" depart="67.00" from="164073716#2" to="324489280#2"/>
    <trip id="trip268" depart="67.00" from="164073716#1" to="315129218#0"/>
    <trip id="trip269" depart="67.00" from="315129223#3" to="800859756#2"/>
    <trip id="trip270" depart="68.00" from="822595542" to="324489280#2"/>
    <trip id="trip271" depart="68.00" from="821520601#0" to="821520601#1"/>
    <trip id="trip272" depart="68.00" from="315129223#2" to="315129223#2"/>
    <trip id="trip273" depart="68.00" from="40349438#0" to="40349438#1"/>
    <trip id="trip274" depart="68.00" from="324489280#1" to="324489280#3"/>
    <trip id="trip275" depart="68.00" from="315129223#4" to="107445426#0"/>
    <trip id="trip276" depart="68.00" from="15805292#0" to="15805292#1"/>
    <trip id="trip277" depart="69.00" from="164073716#0" to="821520601#1"/>
    <trip id="trip278" depart="69.00" from="315129223#2" to="-15833384#1"/>
    <trip id="trip279" depart="69.00" from="164073716#2" to="821520601#0"/>
    <trip id="trip280" depart="69.00" from="15833384#1" to="974103232#0"/>
    <trip id="trip281" depart="70.00" from="164073716#2" to="821520601#2"/>
    <trip id="trip282" depart="70.00" from="315129223#4" to="800859756#0"/>
    <trip id="trip283" depart="71.00" from="164073716#0" to="324489280#3"/>
    <trip id="trip284" depart="71.00" from="822595542" to="164073716#1"/>
    <trip id="trip285" depart="72.00" from="223051907" to="-974103232#1"/>
    <trip id="trip286" depart="72.00" from="1193988979" to="40349438#1"/>
    <trip id="trip287" depart="73.00" from="324489280#1" to="821520601#2"/>
    <trip id="trip288" depart="73.00" from="107445426#0" to="-974103232#0"/>
    <trip id="trip289" depart="73.00" from="164073716#0" to="821520601#1"/>
    <trip id="trip290" depart="74.00" from="164073716#1" to="315129218#0"/>
    <trip id="trip291" depart="74.00" from="107445428#0" to="107445428#1"/>
    <trip id="trip292" depart="74.00" from="315129223#1" to="315129223#1"/>
    <trip id="trip293" depart="74.00" from="315129223#2" to="107445426#1"/>
    <trip id="trip294" depart="74.00" from="164073716#0" to="324489280#0"/>
    <trip id="trip295" depart="75.00" from="315129223#2" to="-15833384#1"/>
    <trip id="trip296" depart="75.00" from="164073716#2" to="822595543"/>
    <trip id="trip297" depart="76.00" from="-974103232#1" to="-15833384#1"/>
    <trip id="trip298" depart="76.00" from="164073716#0" to="-974103232#1"/>
    <trip id="trip299" depart="76.00" from="15833384#1" to="822595541"/>
    <trip id="trip300" depart="76.00" from="315129218#0" to="107445426#0"/>
    <trip id="trip301" depart="76.00" from="164073716#2" to="315129218#1"/>
    <trip id="trip302" depart="76.00" from="223051913#1" to="223051913#2"/>
    <trip id="trip303" depart="77.00" from="-15833384#1" to="-15833384#0"/>
    <trip id="trip304" depart="77.00" from="324489280#2" to="821520601#2"/>
    <trip id="trip305" depart="77.00" from="822595542" to="-974103232#0"/>
    <trip id="trip306" depart="77.00" from="164073716#2" to="223051913#1"/>
    <trip id="trip307" depart="77.00" from="821520601#1" to="821520601#2"/>
    <trip id="trip308" depart="78.00" from="315129223#0" to="800859756#2"/>
    <trip id="trip309" depart="78.00" from="107445428#1" to="40349438#1"/>
    <trip id="trip310" depart="78.00" from="107445428#2" to="40349438#1"/>
    <trip id="trip311" depart="79.00" from="107445426#0" to="-15833384#1"/>
    <trip id="trip312" depart="79.00" from="315129223#2" to="40349438#1"/>
    <trip id="trip313" depart="79.00" from="315129223#0" to="315129223#4"/>
    <trip id="trip314" depart="79.00" from="15833384#0" to="974103232#0"/>
    <trip id="trip315" depart="79.00" from="40349438#0" to="40349438#0"/>
    <trip id="trip316" depart="80.00" from="315129223#2" to="-15833384#1"/>
    <trip id="trip317" depart="80.00" from="164073716#1" to="223051913#0"/>
    <trip id="trip318" depart="80.00" from="315129223#4" to="-974103232#0"/>
    <trip id="trip319" depart="80.00" from="164073716#2" to="223051913#0"/>
    <trip id="trip320" depart="81.00" from="974103233" to="822595541"/>
    <trip id="trip321" depart="81.00" from="315129223#3" to="822595541"/>
    <trip id="trip322" depart="82.00" from="822595542" to="164073716#1"/>
    <trip id="trip323" depart="82.00" from="974103232#0" to="974103232#1"/>
    <trip id="trip324" depart="82.00" from="974103232#1" to="107445428#0"/>
    <trip id="trip325" depart="82.00" from="822595542" to="223051913#2"/>
    <trip id="trip326" depart="82.00" from="974103232#1" to="974103232#1"/>
    <trip id="trip327" depart="82.00" from="-15805292#1" to="-15805292#0"/>
    <trip id="trip328" depart="83.00" from="315129223#4" to="-15833384#1"/>
    <trip id="trip329" depart="83.00" from="315129223#4" to="-15833384#1"/>
    <trip id="trip330" depart="83.00" from="800859756#2" to="40349438#0"/>
    <trip id="trip331" depart="84.00" from="223051913#2" to="223051913#2"/>
    <trip id="trip332" depart="84.00" from="324489280#3" to="821520601#2"/>
    <trip id="trip333" depart="84.00" from="324489280#1" to="821520601#1"/>
    <trip id="trip334" depart="84.00" from="315129223#1" to="-974103232#0"/>
    <trip id="trip335" depart="85.00" from="324489280#1" to="821520601#1"/>
    <trip id="trip336" depart="85.00" from="324489280#0" to="822595543"/>
    <trip id="trip337" depart="85.00" from="164073716#2" to="164073716#2"/>
    <trip id="trip338" depart="85.00" from="822595542" to="107445426#1"/>
    <trip id="trip339" depart="85.00" from="315129223#2" to="-974103232#1"/>
    <trip id="trip340" depart="85.00" from="315129223#1" to="315129223#4"/>
    <trip id="trip341" depart="86.00" from="164073716#1" to="315129218#1"/>
    <trip id="trip342" depart="86.00" from="107445428#2" to="40349438#0"/>
    <trip id="trip343" depart="86.00" from="-974103232#0" to="-15833384#1"/>
    <trip id="trip344" depart="86.00" from="822595542" to="324489280#3"/>
    <trip id="trip345" depart="87.00" from="164073716#0" to="821520601#0"/>
    <trip id="trip346" depart="87.00" from="1193988979" to="107445428#0"/>
    <trip id="trip347" depart="87.00" from="315129223#3" to="-15833384#0"/>
    <trip id="trip348" depart="87.00" from="16151549#0" to="16151549#3"/>
    <trip id="trip349" depart="87.00" from="164073716#1" to="324489280#0"/>
    <trip id="trip350" depart="87.00" from="315129223#2" to="800859756#2"/>
    <trip id="trip351" depart="88.00" from="15805292#0" to="15805292#1"/>
    <trip id="trip352" depart="89.00" from="821520605" to="821520605"/>
    <trip id="trip353" depart="89.00" from="164073716#1" to="315129218#1"/>
    <trip id="trip354" depart="89.00" from="800859756#2" to="40349438#0"/>
    <trip id="trip355" depart="90.00" from="822595542" to="822595543"/>
    <trip id="trip356" depart="90.00" from="164073716#0" to="822595543"/>
    <trip id="trip357" depart="91.00" from="15833384#1" to="107445428#2"/>
    <trip id="trip358" depart="91.00" from="822595541" to="40349438#1"/>
    <trip id="trip359" depart="91.00" from="324489280#2" to="324489280#3"/>
    <trip id="trip360" depart="92.00" from="164073716#1" to="223051907"/>
    <trip id="trip361" depart="92.00" from="1193988979" to="40349438#0"/>
    <trip id="trip362" depart="93.00" from="164073716#1" to="223051913#1"/>
    <trip id="trip363" depart="93.00" from="15833384#1" to="107445428#2"/>
    <trip id="trip364" depart="93.00" from="15833384#0" to="-974103233"/>
    <trip id="trip365" depart="93.00" from="315129218#1" to="-974103232#1"/>
    <trip id="trip366" depart="93.00" from="164073716#2" to="107445426#1"/>
    <trip id="trip367" depart="94.00" from="315129223#4" to="107445426#0"/>
    <trip id="trip368" depart="94.00" from="164073716#2" to="107445426#0"/>
    <trip id="trip369" depart="94.00" from="315129223#3" to="822595541"/>
    <trip id="trip370" depart="94.00" from="821520601#0" to="821520601#2"/>
    <trip id="trip371" depart="94.00" from="107445428#0" to="40349438#0"/>
    <trip id="trip372" depart="95.00" from="164073716#0" to="223051913#0"/>
    <trip id="trip373" depart="95.00" from="315129218#0" to="315129218#0"/>
    <trip id="trip374" depart="95.00" from="164073716#2" to="821520601#1"/>
    <trip id="trip375" depart="95.00" from="315129223#4" to="-15833384#1"/>
    <trip id="trip376" depart="95.00" from="164073716#0" to="-974103232#0"/>
    <trip id="trip377" depart="95.00" from="315129223#4" to="223051907"/>
    <trip id="trip378" depart="95.00" from="974103232#1" to="40349438#1"/>
    <trip id="trip379" depart="96.00" from="800859756#0" to="800859756#2"/>
    <trip id="trip380" depart="97.00" from="315129223#2" to="800859756#0"/>
    <trip id="trip381" depart="97.00" from="164073716#0" to="821520601#0"/>
    <trip id="trip382" depart="97.00" from="324489280#1" to="821520601#0"/>
    <trip id="trip383" depart="97.00" from="800859756#2" to="40349438#0"/>
    <trip id="trip384" depart="97.00" from="15833384#0" to="-974103233"/>
    <trip id="trip385" depart="98.00" from="-974103232#1" to="-974103232#0"/>